! File generated by DesignBuilder - 7.0.2.006 27-08-2023 - 15:44:30
! Source file: N:\My Thesis\DB_Models\modeltry2.dsb

! Geometry convention template : External measurements
! Zone geometry and surface areas : 2-Outer
! Zone volume calculation method : 1-Inner
! Zone floor area calculation method : 1-Inner
! Window to wall ratio method : 1-Inner

Version, 9.4.0.002;                               !- Version Identifier

RunPeriod,                                        !- Annual simulation
   Converge-building (01-01:31-12),               !- Location
   1,1, 2002,                                     !- Start Month , Day
   12,31, 2002,                                   !- End Month , Day
   ,                                              !- Day of Week for Start Day
   No,                                            !- Use weather file holidays/special day periods
   No,                                            !- Use WeatherFile DaylightSavingPeriod - will use daylight saving time shown below
   Yes,                                           !- Apply Weekend Holiday Rule - will reassign weekend holidays to Monday
   Yes,                                           !- use weather file rain indicators
   Yes,                                           !- use weather file snow indicators
   No;                                            !- Treat Weather as Actual

RunPeriodControl:DaylightSavingTime, Last Sunday in March,Last Sunday in October;  !- Daylight saving dates - one hour is added to local mean time to obtain the locally observed time during this period

! Hourly weather file: C:\ProgramData\DesignBuilder\Weather Data\NLD_AMSTERDAM_IWEC.epw

Site:Location,Converge-building (01-01:31-12)  (01-01:31-12),  !- Location Name
   52.3,                                         !- Latitude
   4.77,                                          !- Longitude
   1,                                             !- Time Zone
   -4;                                            !- Elevation {m}

Site:GroundTemperature:BuildingSurface,           !- Annual ground temperatures - 1 value for each month
   18,                                            !- Jan ground temperature
   18,                                            !- Feb ground temperature
   18,                                            !- Mar ground temperature
   18,                                            !- Apr ground temperature
   18,                                            !- May ground temperature
   18,                                            !- Jun ground temperature
   18,                                            !- Jul ground temperature
   18,                                            !- Aug ground temperature
   18,                                            !- Sep ground temperature
   18,                                            !- Oct ground temperature
   18,                                            !- Nov ground temperature
   18;                                            !- Dec ground temperature

Site:GroundTemperature:Deep,                      !- Annual ground temperatures - 1 value for each month
   14,                                            !- Jan deep ground temperature
   14,                                            !- Feb deep ground temperature
   14,                                            !- Mar deep ground temperature
   14,                                            !- Apr deep ground temperature
   14,                                            !- May deep ground temperature
   14,                                            !- Jun deep ground temperature
   14,                                            !- Jul deep ground temperature
   14,                                            !- Aug deep ground temperature
   14,                                            !- Sep deep ground temperature
   14,                                            !- Oct deep ground temperature
   14,                                            !- Nov deep ground temperature
   14;                                            !- Dec deep ground temperature

Site:GroundTemperature:Shallow,                   !- Annual ground temperatures - 1 value for each month
   14,                                            !- Jan shallow ground temperature
   14,                                            !- Feb shallow ground temperature
   14,                                            !- Mar shallow ground temperature
   14,                                            !- Apr shallow ground temperature
   14,                                            !- May shallow ground temperature
   14,                                            !- Jun shallow ground temperature
   14,                                            !- Jul shallow ground temperature
   14,                                            !- Aug shallow ground temperature
   14,                                            !- Sep shallow ground temperature
   14,                                            !- Oct shallow ground temperature
   14,                                            !- Nov shallow ground temperature
   14;                                            !- Dec shallow ground temperature

Site:GroundTemperature:FCfactorMethod,            !- Annual ground temperatures - 1 value for each month
   6.55,                                          !- January FCfactorMethod ground temperature {C}
   4.47,                                          !- Februry FCfactorMethod ground temperature {C}
   3.90,                                          !- March FCfactorMethod ground temperature {C}
   4.39,                                          !- April FCfactorMethod ground temperature {C}
   7.20,                                          !- May FCfactorMethod ground temperature {C}
   10.34,                                         !- June FCfactorMethod ground temperature {C}
   13.30,                                         !- July FCfactorMethod ground temperature {C}
   15.44,                                         !- August FCfactorMethod ground temperature {C}
   16.06,                                         !- September FCfactorMethod ground temperature {C}
   15.06,                                         !- October FCfactorMethod ground temperature {C}
   12.63,                                         !- November FCfactorMethod ground temperature {C}
   9.58;                                          !- December FCfactorMethod ground temperature {C}

Site:GroundReflectance,                           !- Annual ground reflectances - 1 value for each month
   0.2,                                           !- Jan ground reflectance
   0.2,                                           !- Feb ground reflectance
   0.2,                                           !- Mar ground reflectance
   0.2,                                           !- Apr ground reflectance
   0.2,                                           !- May ground reflectance
   0.2,                                           !- Jun ground reflectance
   0.2,                                           !- Jul ground reflectance
   0.2,                                           !- Aug ground reflectance
   0.2,                                           !- Sep ground reflectance
   0.2,                                           !- Oct ground reflectance
   0.2,                                           !- Nov ground reflectance
   0.2;                                           !- Dec ground reflectance

Site:GroundReflectance:SnowModifier,
   2.0,                                           !- Ground Reflected Solar Modifier
   2.0;                                           !- Daylighting Ground Reflected Solar Modifier

SimulationControl,
   No,                                            !- Do the zone sizing calculation
   No,                                            !- Do the system sizing calculation
   No,                                            !- Do the plant sizing calculation
   No,                                            !- Do the design day calculation
   Yes;                                           !- Do the weather file calculation


Timestep, 2;                                      !- Timesteps/hour

ConvergenceLimits,
   1,                                             !- Minimum System Time Step (0=same as zone time step)
   25;                                            !- Maximum HVAC Iterations (1=min, 20=default)

ScheduleTypeLimits, Any Number;                         ! Not limited
ScheduleTypeLimits, Fraction,     0.0, 1.0, CONTINUOUS;
ScheduleTypeLimits, Temperature,  -60, 200, CONTINUOUS;
ScheduleTypeLimits, Control Type,   0,   4, DISCRETE;
ScheduleTypeLimits, On/Off,         0,   1, DISCRETE;

Schedule:Compact, 
      On,                                         ! Name
      Any Number,                                 ! Type
      Through: 12/31,                             ! Type
      For: AllDays,                               ! All days in year
      Until: 24:00,                               ! All hours in day
       1;     

Schedule:Compact, 
      Off,                                        ! Name
      Any Number,                                 ! Type
      Through: 12/31,                             ! Type
      For: AllDays,                               ! All days in year
      Until: 24:00,                               ! All hours in day
       0;     

Schedule:Compact, 
      Work efficiency,                            ! Name
      Any Number,                                 ! Type
      Through: 12/31,                             ! Type
      For: AllDays,                               ! All days in year
      Until: 24:00,                               ! All hours in day
       0;     

Schedule:Compact,
      OpaqueShade,                                ! Name
      Any Number,                                 ! Type
      Through: 12/31,                             ! Type
      For: AllDays,                               ! All days in year
      Until: 24:00,                               ! All hours in day
       0;     
       
Schedule:Compact,
    Zone Comfort Control Type Sched,              !- Name
    Control Type,                                 !- Schedule Type Limits Name
    Through: 12/31,                               !- Field 1
    For: AllDays,                                 !- Field 2
    Until: 24:00,                                 !- Field 3
    4;                                            !- Field 4

Schedule:Compact,
    Design Days Only,                             !- Name
    Any Number,                                   !- Schedule Type Limits Name
    Through: 12/31,                               !- Field 1
    For: SummerDesignDay WinterDesignDay,         !- Field 2
    Until: 24:00,                                 !- Field 3
    1,                                            !- Field 4
    For: AllOtherDays,                            !- Field 2
    Until: 24:00,                                 !- Field 3
    0;
      
! off heating day
Schedule:Day:Hourly,  0, Any Number,
   0,0,0,0,0,0,0,0,0,0,0,0,0,0,0,0,0,0,0,0,0,0,0,0;

! off cooling day
Schedule:Day:Hourly,  50, Any Number,
   50,50,50,50,50,50,50,50,50,50,50,50,50,50,50,50,50,50,50,50,50,50,50,50;

! used in seasonal schedules
Schedule:Day:Hourly,  Off, Fraction,
   0,0,0,0,0,0,0,0,0,0,0,0,0,0,0,0,0,0,0,0,0,0,0,0;

Schedule:Week:Daily, Off,
   Off,Off,Off,Off,
   Off,Off,Off,Off,
   Off,Off,Off,Off;

! -------------------- Control type schedules (for heating & cooling) ----------------------

Schedule:Day:Hourly, Summer Control Type Day Sch, Control Type,
   4,4,4,4,4,4,4,4,4,4,4,4,4,4,4,4,4,4,4,4,4,4,4,4;

Schedule:Day:Hourly, Winter Control Type Day Sch, Control Type,
   4,4,4,4,4,4,4,4,4,4,4,4,4,4,4,4,4,4,4,4,4,4,4,4;

Schedule:Day:Hourly, Summer Control Type Day Sch - cool, Control Type,
   2,2,2,2,2,2,2,2,2,2,2,2,2,2,2,2,2,2,2,2,2,2,2,2;

Schedule:Day:Hourly, Winter Control Type Day Sch - heat, Control Type,
   1,1,1,1,1,1,1,1,1,1,1,1,1,1,1,1,1,1,1,1,1,1,1,1;

Schedule:Week:Daily, Summer Control Type Week Sch,
   Summer Control Type Day Sch,Summer Control Type Day Sch,Summer Control Type Day Sch,
   Summer Control Type Day Sch,Summer Control Type Day Sch,Summer Control Type Day Sch,
   Summer Control Type Day Sch,Summer Control Type Day Sch,Summer Control Type Day Sch,
   Summer Control Type Day Sch,Summer Control Type Day Sch,Summer Control Type Day Sch;

Schedule:Week:Daily, Winter Control Type Week Sch,
   Winter Control Type Day Sch,Winter Control Type Day Sch,Winter Control Type Day Sch,
   Winter Control Type Day Sch,Winter Control Type Day Sch,Winter Control Type Day Sch,
   Winter Control Type Day Sch,Winter Control Type Day Sch,Winter Control Type Day Sch,
   Winter Control Type Day Sch,Winter Control Type Day Sch,Winter Control Type Day Sch;

Schedule:Week:Daily, Summer Control Type Week Sch - cool,
   Summer Control Type Day Sch - cool,Summer Control Type Day Sch - cool,Summer Control Type Day Sch - cool,
   Summer Control Type Day Sch - cool,Summer Control Type Day Sch - cool,Summer Control Type Day Sch - cool,
   Summer Control Type Day Sch - cool,Summer Control Type Day Sch - cool,Summer Control Type Day Sch - cool,
   Summer Control Type Day Sch - cool,Summer Control Type Day Sch - cool,Summer Control Type Day Sch - cool;

Schedule:Week:Daily, Winter Control Type Week Sch - heat,
   Winter Control Type Day Sch - heat,Winter Control Type Day Sch - heat,Winter Control Type Day Sch - heat,
   Winter Control Type Day Sch - heat,Winter Control Type Day Sch - heat,Winter Control Type Day Sch - heat,
   Winter Control Type Day Sch - heat,Winter Control Type Day Sch - heat,Winter Control Type Day Sch - heat,
   Winter Control Type Day Sch - heat,Winter Control Type Day Sch - heat,Winter Control Type Day Sch - heat;

!Material:InfraredTransparent,
!IRTMaterial; !- Name

!Construction,
!IRTSurface,  !- Name
!IRTMaterial; !- Outside Layer





Material:NoMass, 
LinearBridgingLayer,                  ! Material Name
Rough,                                ! Roughness
0.6267 ,                              ! Resistance {M**2K/W} will give Total Resistance 1
0.0100000 ,                           ! Thermal Absorptance
0.0100000 ,                           ! Solar Absorptance
0.0100000 ;                           ! Visible Absorptance

Construction,
LinearBridgingConstruction,           !- Name
LinearBridgingLayer;                  !- Layer

Schedule:Compact,
TypOperativeTempControlSch,
Temperature,
Through: 31 Dec,
For: SummerDesignDay WinterDesignDay,
Until: 24:00, 0.0,
For: AllOtherDays,
Until: 24:00, 0.5;

Schedule:Compact, 
      OnWinterDesignDay,                          ! Name
      Any Number,                                 
      Through: 12/31,                             
      For: WinterDesignDay,                       ! All days in year
      Until: 24:00, 1,
      For: AllOtherDays,
      Until: 24:00, 0;     

Schedule:Compact, 
      OnSummerDesignDay,                          ! Name
      Any Number,                                 
      Through: 12/31,                             
      For: SummerDesignDay,                       ! All days in year
      Until: 24:00, 1,
      For: AllOtherDays,
      Until: 24:00, 0;     

Material:InfraredTransparent,
IRTMaterial; !- Name

Construction,
IRTSurface,  !- Name
IRTMaterial; !- Outside Layer


! Profile: Off
Schedule:Day:Interval, 11 , Any number, No, 
24:00,  0;

! Profile: On
Schedule:Day:Interval, 12 , Any number, No, 
24:00,  1;

! Profile: Extended schedule
Schedule:Day:Interval, 10003 , Any number, No, 
   10:00,0,                                       !- Start time
   21:00,1,                                       !- end time
   24:00,0;                                       !- end time

! Profile: Correction Lighting10-21
Schedule:Day:Interval, 10004 , Any number, No, 
   10:00,0,                                       !- Start time
   22:00,1,                                       !- end time
   24:00,0;                                       !- end time

! Schedule: On 24/7
Schedule:Compact, 
On 24/7, 
Any Number,
Through: 12/31,
For: AllDays,   
Until: 24:00,   1 ;


! Schedule: Off 24/7
Schedule:Compact,
Off 24/7,
Any Number,
Through: 12/31,
For: AllDays,
Until: 24:00,  0  ;


! Schedule: 8:00 - 18:00 Mon - Fri
Schedule:Compact,
8:00 - 18:00 Mon - Fri,
Fraction,
Through: 31 Dec,
For: Weekdays SummerDesignDay WinterDesignDay,
Until: 08:00,      0,
Until: 18:00,      1,
Until: 24:00,      0,
For: Weekends,
Until: 24:00,      0,
For: AllOtherDays,
Until: 24:00,      0     ;


! Schedule: Gain distribution schedule: Always 0.5
Schedule:Compact, 
Gain distribution schedule: Always 0.5, 
Any Number,
Through: 12/31,
For: AllDays,   
Until: 24:00, 0.5 ;


! Schedule: DayCtr_Lecture_Occ
Schedule:Compact,
DayCtr_Lecture_Occ,
Fraction,
Through: 31 Dec,
For: Weekdays SummerDesignDay,
Until: 07:00, 0,
Until: 08:00, 0.1,
Until: 09:00, 0.25,
Until: 10:00, 0.75,
Until: 12:00, 1,
Until: 14:00, 0.5,
Until: 16:00, 1,
Until: 18:00, 0.5,
Until: 24:00, 0,
For: Weekends,
Until: 24:00, 0,
For: Holidays,
Until: 24:00, 0,
For: WinterDesignDay AllOtherDays,
Until: 24:00, 0;


! Schedule: D2_Lecture_Occ
Schedule:Compact,
D2_Lecture_Occ,
Fraction,
Through: 31 Dec,
For: Weekdays SummerDesignDay,
Until: 09:00, 0,
Until: 10:00, 0.75,
Until: 12:00, 1,
Until: 14:00, 0.75,
Until: 17:00, 1,
Until: 18:00, 0.75,
Until: 24:00, 0,
For: Weekends,
Until: 09:00, 0,
Until: 10:00, 0.75,
Until: 12:00, 1,
Until: 14:00, 0.75,
Until: 17:00, 1,
Until: 18:00, 0.75,
Until: 24:00, 0,
For: Holidays,
Until: 09:00, 0,
Until: 10:00, 0.75,
Until: 12:00, 1,
Until: 14:00, 0.75,
Until: 17:00, 1,
Until: 18:00, 0.75,
Until: 24:00, 0,
For: WinterDesignDay AllOtherDays,
Until: 24:00, 0;


! Schedule: Default Air Velocity for Comfort Calculations
Schedule:Compact, 
Default Air Velocity for Comfort Calculations, 
Any Number,
Through: 12/31,
For: AllDays,   
Until: 24:00,   0.1370 ;


! Schedule: Extended schedule cooling
Schedule:Week:Daily, Extended schedule cooling_Jan,  !- A Schedule:Week:Daily contains 12 DAYSCHEDULES, one for each day type
   11,                                            !- Sunday
   10003,                                         !- Monday
   10003,                                         !- Tuesday
   10003,                                         !- Wednesday
   10003,                                         !- Thursday
   10003,                                         !- Friday
   11,                                            !- Saturday
   11,                                            !- Holiday
   10004,                                         !- SummerDesignDay
   12,                                            !- WinterDesignDay
   10003,                                         !- CustomDay1
   10003;                                         !- CustomDay2

Schedule:Week:Daily, Extended schedule cooling_Feb,  !- A Schedule:Week:Daily contains 12 DAYSCHEDULES, one for each day type
   11,                                            !- Sunday
   10003,                                         !- Monday
   10003,                                         !- Tuesday
   10003,                                         !- Wednesday
   10003,                                         !- Thursday
   10003,                                         !- Friday
   11,                                            !- Saturday
   11,                                            !- Holiday
   10004,                                         !- SummerDesignDay
   12,                                            !- WinterDesignDay
   10003,                                         !- CustomDay1
   10003;                                         !- CustomDay2

Schedule:Week:Daily, Extended schedule cooling_Mar,  !- A Schedule:Week:Daily contains 12 DAYSCHEDULES, one for each day type
   11,                                            !- Sunday
   10003,                                         !- Monday
   10003,                                         !- Tuesday
   10003,                                         !- Wednesday
   10003,                                         !- Thursday
   10003,                                         !- Friday
   11,                                            !- Saturday
   11,                                            !- Holiday
   10004,                                         !- SummerDesignDay
   12,                                            !- WinterDesignDay
   10003,                                         !- CustomDay1
   10003;                                         !- CustomDay2

Schedule:Week:Daily, Extended schedule cooling_Apr,  !- A Schedule:Week:Daily contains 12 DAYSCHEDULES, one for each day type
   11,                                            !- Sunday
   10003,                                         !- Monday
   10003,                                         !- Tuesday
   10003,                                         !- Wednesday
   10003,                                         !- Thursday
   10003,                                         !- Friday
   11,                                            !- Saturday
   11,                                            !- Holiday
   10004,                                         !- SummerDesignDay
   12,                                            !- WinterDesignDay
   10003,                                         !- CustomDay1
   10003;                                         !- CustomDay2

Schedule:Week:Daily, Extended schedule cooling_May,  !- A Schedule:Week:Daily contains 12 DAYSCHEDULES, one for each day type
   11,                                            !- Sunday
   10003,                                         !- Monday
   10003,                                         !- Tuesday
   10003,                                         !- Wednesday
   10003,                                         !- Thursday
   10003,                                         !- Friday
   11,                                            !- Saturday
   11,                                            !- Holiday
   10004,                                         !- SummerDesignDay
   12,                                            !- WinterDesignDay
   10003,                                         !- CustomDay1
   10003;                                         !- CustomDay2

Schedule:Week:Daily, Extended schedule cooling_Jun,  !- A Schedule:Week:Daily contains 12 DAYSCHEDULES, one for each day type
   11,                                            !- Sunday
   10003,                                         !- Monday
   10003,                                         !- Tuesday
   10003,                                         !- Wednesday
   10003,                                         !- Thursday
   10003,                                         !- Friday
   11,                                            !- Saturday
   11,                                            !- Holiday
   10004,                                         !- SummerDesignDay
   12,                                            !- WinterDesignDay
   10003,                                         !- CustomDay1
   10003;                                         !- CustomDay2

Schedule:Week:Daily, Extended schedule cooling_Jul,  !- A Schedule:Week:Daily contains 12 DAYSCHEDULES, one for each day type
   11,                                            !- Sunday
   10003,                                         !- Monday
   10003,                                         !- Tuesday
   10003,                                         !- Wednesday
   10003,                                         !- Thursday
   10003,                                         !- Friday
   11,                                            !- Saturday
   11,                                            !- Holiday
   10004,                                         !- SummerDesignDay
   12,                                            !- WinterDesignDay
   10003,                                         !- CustomDay1
   10003;                                         !- CustomDay2

Schedule:Week:Daily, Extended schedule cooling_Aug,  !- A Schedule:Week:Daily contains 12 DAYSCHEDULES, one for each day type
   11,                                            !- Sunday
   10003,                                         !- Monday
   10003,                                         !- Tuesday
   10003,                                         !- Wednesday
   10003,                                         !- Thursday
   10003,                                         !- Friday
   11,                                            !- Saturday
   11,                                            !- Holiday
   10004,                                         !- SummerDesignDay
   12,                                            !- WinterDesignDay
   10003,                                         !- CustomDay1
   10003;                                         !- CustomDay2

Schedule:Week:Daily, Extended schedule cooling_Sep,  !- A Schedule:Week:Daily contains 12 DAYSCHEDULES, one for each day type
   11,                                            !- Sunday
   10003,                                         !- Monday
   10003,                                         !- Tuesday
   10003,                                         !- Wednesday
   10003,                                         !- Thursday
   10003,                                         !- Friday
   11,                                            !- Saturday
   11,                                            !- Holiday
   10004,                                         !- SummerDesignDay
   12,                                            !- WinterDesignDay
   10003,                                         !- CustomDay1
   10003;                                         !- CustomDay2

Schedule:Week:Daily, Extended schedule cooling_Oct,  !- A Schedule:Week:Daily contains 12 DAYSCHEDULES, one for each day type
   11,                                            !- Sunday
   10003,                                         !- Monday
   10003,                                         !- Tuesday
   10003,                                         !- Wednesday
   10003,                                         !- Thursday
   10003,                                         !- Friday
   11,                                            !- Saturday
   11,                                            !- Holiday
   10004,                                         !- SummerDesignDay
   12,                                            !- WinterDesignDay
   10003,                                         !- CustomDay1
   10003;                                         !- CustomDay2

Schedule:Week:Daily, Extended schedule cooling_Nov,  !- A Schedule:Week:Daily contains 12 DAYSCHEDULES, one for each day type
   11,                                            !- Sunday
   10003,                                         !- Monday
   10003,                                         !- Tuesday
   10003,                                         !- Wednesday
   10003,                                         !- Thursday
   10003,                                         !- Friday
   11,                                            !- Saturday
   11,                                            !- Holiday
   10004,                                         !- SummerDesignDay
   12,                                            !- WinterDesignDay
   10003,                                         !- CustomDay1
   10003;                                         !- CustomDay2

Schedule:Week:Daily, Extended schedule cooling_Dec,  !- A Schedule:Week:Daily contains 12 DAYSCHEDULES, one for each day type
   11,                                            !- Sunday
   10003,                                         !- Monday
   10003,                                         !- Tuesday
   10003,                                         !- Wednesday
   10003,                                         !- Thursday
   10003,                                         !- Friday
   11,                                            !- Saturday
   11,                                            !- Holiday
   10004,                                         !- SummerDesignDay
   12,                                            !- WinterDesignDay
   10003,                                         !- CustomDay1
   10003;                                         !- CustomDay2


! Schedule: 9:00 - 17:00 Mon - Fri
Schedule:Compact,
9:00 - 17:00 Mon - Fri,
Fraction,
Through: 31 Dec,
For: Weekdays SummerDesignDay WinterDesignDay,
Until: 09:00,      0,
Until: 17:00,      1,
Until: 24:00,      0,
For: Weekends,
Until: 24:00,      0,
For: AllOtherDays,
Until: 24:00,      0     ;


! Schedule: General Assembly/Leisure/Night Clubs/Theatr
SCHEDULE:COMPACT,
General Assembly/Leisure/Night Clubs/Theatr,
Fraction,
Through: 31 Dec,
For: Weekdays SummerDesignDay,
Until: 07:00, 0,
Until: 10:00, 0,
Until: 22:00, 1,
Until: 24:00, 0,
For: Weekends,
Until: 24:00, 0,
For: Holidays WinterDesignDay AllOtherDays,
Until: 24:00, 0;


! Schedule: Extended schedule cooling
Schedule:Year, Extended schedule cooling, Any number,  !- A SCHEDULE contains from 1 to 18 Schedule:Week:Daily
   Extended schedule cooling_Jan, 1, 1, 1, 31,    !- Schedule:Week:Daily - From date to date
   Extended schedule cooling_Feb, 2, 1, 2, 28,    !- Schedule:Week:Daily - From date to date
   Extended schedule cooling_Mar, 3, 1, 3, 31,    !- Schedule:Week:Daily - From date to date
   Extended schedule cooling_Apr, 4, 1, 4, 30,    !- Schedule:Week:Daily - From date to date
   Extended schedule cooling_May, 5, 1, 5, 31,    !- Schedule:Week:Daily - From date to date